*SOILS : Ames, Iowa
 
*AMES000010  CLARION     L       200 CLARION LOAM                                                                             
@SITE        COUNTRY          LAT     LONG SCSFAMILY                                                                                         
 AMES, IA    USA           42.017  -93.750 FINE-LOAMY, MIXED MESWIC TYPIC HAPLUDOLLS                                                  
@ SCOM  SALB  SLU1  SLDR  SLRO  SLNF  SLPF  SMHB  SMPX  SMKE                                                                                 
   -99  0.20 12.00  0.20  80.0  1.00  1.00 IB001 IB001 IB001                                                                                 
@  SLB  SLMH  SLLL  SDUL  SSAT   SRGF SSKS  SBDM  SLOC  SLCL  SLSI  SLCF  SLNI  SLHW  SLHB  SCEC  SADC                                                                          
    23    AP 0.156 0.305 0.386  0.993 0.48  1.51  2.20  20.6  31.8  -99.  0.19   6.5  -99.  17.3  -99.
    33    AB 0.160 0.290 0.416  0.978 0.58  1.42  1.40  24.0  29.7  -99.  0.20   6.1  -99.  17.9  -99.
    48   BW1 0.151 0.290 0.414  0.903 0.72  1.42  0.87  22.3  28.1  -99.  0.11   6.2  -99.  17.1  -99.                                       
    70   BW2 0.137 0.249 0.408  0.793 0.79  1.43  0.53  20.6  28.0  -99.  0.07   6.4  -99.  15.4  -99.     
    87   BW3 0.118 0.234 0.404  0.708 0.94  1.42  0.38  18.2  29.4  -99.  0.06   6.6  -99.  13.6  -99.                                       
   102    BC 0.121 0.240 0.368  0.633 0.63  1.53  0.19  15.5  34.5  -99.  0.04   7.8  -99.   9.5  -99.                                       
   120    C1 0.139 0.266 0.313  0.543 0.30  1.76  0.09  14.3  34.8  -99.  0.03   8.1  -99.   8.7  -99.                                       
   151    C2 0.137 0.278 0.300  0.388 0.79  1.82  0.08  14.4  33.4  -99.  0.03   8.1  -99.   8.9  -99.
   183    C3 0.136 0.256 0.325  0.228 0.53  1.79  0.07  14.8  32.5  -99.  0.03   8.1  -99.   8.7  -99.
   200    C4 0.134 0.277 0.325  0.143 0.75  1.79  0.05  14.2  33.2  -99.  0.02   8.1  -99.   8.4  -99.
   
*AMES000910  CLARION     L       200 CLARION LOAM       
!with SLRO = 0.0                                                                      
@SITE        COUNTRY          LAT     LONG SCSFAMILY                                                                                         
 AMES, IA    USA           42.017  -93.750 FINE-LOAMY, MIXED MESWIC TYPIC HAPLUDOLLS                                                  
@ SCOM  SALB  SLU1  SLDR  SLRO  SLNF  SLPF  SMHB  SMPX  SMKE                                                                                 
   -99  0.20 12.00  0.20   2.0  1.00  1.00 IB001 IB001 IB001                                                                                 
@  SLB  SLMH  SLLL  SDUL  SSAT   SRGF SSKS  SBDM  SLOC  SLCL  SLSI  SLCF  SLNI  SLHW  SLHB  SCEC  SADC                                                                          
    23    AP 0.156 0.305 0.386  0.993 0.48  1.51  2.20  20.6  31.8  -99.  0.19   6.5  -99.  17.3  -99.
    33    AB 0.160 0.290 0.416  0.978 0.58  1.42  1.40  24.0  29.7  -99.  0.20   6.1  -99.  17.9  -99.
    48   BW1 0.151 0.290 0.414  0.903 0.72  1.42  0.87  22.3  28.1  -99.  0.11   6.2  -99.  17.1  -99.                                       
    70   BW2 0.137 0.249 0.408  0.793 0.79  1.43  0.53  20.6  28.0  -99.  0.07   6.4  -99.  15.4  -99.     
    87   BW3 0.118 0.234 0.404  0.708 0.94  1.42  0.38  18.2  29.4  -99.  0.06   6.6  -99.  13.6  -99.                                       
   102    BC 0.121 0.240 0.368  0.633 0.63  1.53  0.19  15.5  34.5  -99.  0.04   7.8  -99.   9.5  -99.                                       
   120    C1 0.139 0.266 0.313  0.543 0.30  1.76  0.09  14.3  34.8  -99.  0.03   8.1  -99.   8.7  -99.                                       
   151    C2 0.137 0.278 0.300  0.388 0.79  1.82  0.08  14.4  33.4  -99.  0.03   8.1  -99.   8.9  -99.
   183    C3 0.136 0.256 0.325  0.228 0.53  1.79  0.07  14.8  32.5  -99.  0.03   8.1  -99.   8.7  -99.
   200    C4 0.134 0.277 0.325  0.143 0.75  1.79  0.05  14.2  33.2  -99.  0.02   8.1  -99.   8.4  -99.
   
